/*--------------------------------*- C++ -*----------------------------------*\
  =========                 |
  \\      /  F ield         | OpenFOAM: The Open Source CFD Toolbox
   \\    /   O peration     | Website:  https://openfoam.org
    \\  /    A nd           | Version:  7
     \\/     M anipulation  |
\*---------------------------------------------------------------------------*/
FoamFile
{
    version     2.0;
    format      ascii;
    class       dictionary;
    object      blockMeshDict;
}
// * * * * * * * * * * * * * * * * * * * * * * * * * * * * * * * * * * * * * //

convertToMeters 1;

vertices
(
    (0 0 0)
    (20 0 0)
    (20 1 0)
    (21 1 0)
    (21 0 0)
    (41 0 0)
    (41 1 0)
    (41 5 0)
    (21 5 0)
    (20 5 0)
    (0 5 0)
    (0 1 0)
    (0 0 1)
    (20 0 1)
    (20 1 1)
    (21 1 1)
    (21 0 1)
    (41 0 1)
    (41 1 1)
    (41 5 1)
    (21 5 1)
    (20 5 1)
    (0 5 1)
    (0 1 1)
);

blocks
(
    hex (0 1 2 11 12 13 14 23) (70 20 5) simpleGrading (0.1 1 1)
    hex (11 2 9 10 23 14 21 22) (70 20 5) simpleGrading (0.1 10 1)
    hex (2 3 8 9 14 15 20 21) (15 20 5) simpleGrading (1 10 1)
    hex (3 6 7 8 15 18 19 20) (70 20 5) simpleGrading (10 10 1)
    hex (4 5 6 3 16 17 18 15) (70 20 5) simpleGrading (10 1 1)
    
    
    //hex (0 1 2 11 12 13 14 23) (100 5 5) simpleGrading (0.1 1 1)
    //hex (11 2 9 10 23 14 21 22) (100 20 5) simpleGrading (0.1 10 1)
    //hex (2 3 8 9 14 15 20 21) (10 20 5) simpleGrading (1 10 1)
    //hex (3 6 7 8 15 18 19 20) (100 20 5) simpleGrading (10 10 1)
    //hex (4 5 6 3 16 17 18 15) (100 5 5) simpleGrading (10 1 1)
);

edges
(
);

boundary
(
    chipWalls
    {
        type wall;
        faces
        (
            (2 3 15 14)
            (1 2 14 13)
            (3 4 16 15)
        );
    }
    inletWalls
    {
        type wall;
        faces
        (
            (0 11 23 12)
            (11 10 22 23)
        );
    }
    outletWalls
    {
        type wall;
        faces
        (
            (5 6 18 17)
            (6 7 19 18)
        );
    }
    topWalls
    {
        type wall;
        faces
        (
            (10 9 21 22)
            (9 8 20 21)
            (8 7 19 20) 
        );
    }
    bottomWalls
    {
        type wall;
        faces
        ( 
            (0 1 13 12)
            (4 5 17 16)
        );
    }
    frontAndBack
    {
        type empty;
        faces
        (
            (0 1 2 11)
            (11 2 9 10)
            (2 3 8 9)
            (3 6 7 8)
            (4 5 6 3)
            
            (12 13 14 23)
            (23 14 21 22)
            (14 15 20 21)
            (15 18 19 20)
            (16 17 18 15)
        );
    }
);

mergePatchPairs
(
);

// ************************************************************************* //
